Circuit: *** SPICE deck for cell commondrainamp_1{lay} from library Project_1

Ignoring BSIM parameter XL
Ignoring BSIM parameter XW
Direct Newton iteration for .op point succeeded.

Date: Thu Jul 24 21:37:51 2025
Total elapsed time: 0.106 seconds.

tnom = 27
temp = 27
method = trap
totiter = 10
traniter = 0
tranpoints = 0
accept = 0
rejected = 0
matrix size = 7
fillins = 0
solver = Normal
Matrix Compiler1:      12 opcodes
Matrix Compiler2: 461 bytes object code size

